/*--------------------------------*- C++ -*----------------------------------*\
  =========                 |
  \\      /  F ield         | OpenFOAM: The Open Source CFD Toolbox
   \\    /   O peration     | Website:  https://openfoam.org
    \\  /    A nd           | Version:  7
     \\/     M anipulation  |
\*---------------------------------------------------------------------------*/
FoamFile
{
    version     2.0;
    format      ascii;
    class       extendedFeatureEdgeMesh;
    location    "constant/extendedFeatureEdgeMesh";
    object      fixed.extendedFeatureEdgeMesh;
}
// * * * * * * * * * * * * * * * * * * * * * * * * * * * * * * * * * * * * * //

// points

2508
(
(-1.24793 -2 0.0719863)
(-1.24755 -2 0.0782381)
(-1.24714 2 0.084488)
(-1.24755 2 0.0782381)
(-1.24714 -2 0.084488)
(-1.2467 -2 0.0907357)
(-3.06162e-16 -2 1.25)
(0.00626312 -2 1.24998)
(-1.2467 2 0.0907357)
(0.0125261 -2 1.24994)
(0.00626312 2 1.24998)
(-3.06162e-16 2 1.25)
(-1.24623 2 0.0969812)
(-1.24623 -2 0.0969812)
(0.0187887 -2 1.24986)
(-1.24573 2 0.103224)
(0.0125261 2 1.24994)
(-1.24573 -2 0.103224)
(0.0187887 2 1.24986)
(-1.2452 2 0.109465)
(-1.2452 -2 0.109465)
(-1.24463 -2 0.115702)
(0.0250509 2 1.24975)
(0.0250509 -2 1.24975)
(-1.24463 2 0.115702)
(0.0313124 -2 1.24961)
(-1.24404 2 0.121937)
(0.0313124 2 1.24961)
(-1.24404 -2 0.121937)
(0.0375732 -2 1.24944)
(0.0375732 2 1.24944)
(-1.24341 -2 0.128169)
(0.043833 -2 1.24923)
(-1.24341 2 0.128169)
(-1.24275 2 0.134397)
(0.043833 2 1.24923)
(-1.24275 -2 0.134397)
(0.0500917 -2 1.249)
(-1.24206 -2 0.140622)
(-1.24206 2 0.140622)
(0.0500917 2 1.249)
(-1.24134 2 0.146844)
(0.0563492 2 1.24873)
(-1.24134 -2 0.146844)
(0.0563492 -2 1.24873)
(-1.24059 2 0.153062)
(0.0626052 2 1.24843)
(-1.24059 -2 0.153062)
(0.0626052 -2 1.24843)
(0.0688597 -2 1.2481)
(-1.23981 -2 0.159276)
(-1.239 -2 0.165486)
(-1.23981 2 0.159276)
(0.0688597 2 1.2481)
(-1.239 2 0.165486)
(0.0751124 2 1.24774)
(0.0751124 -2 1.24774)
(-1.23815 -2 0.171692)
(-1.23815 2 0.171692)
(0.0813633 2 1.24735)
(0.0813633 -2 1.24735)
(0.0876121 -2 1.24693)
(-1.23728 -2 0.177894)
(-1.23728 2 0.177894)
(0.0876121 2 1.24693)
(-1.23637 -2 0.184091)
(-1.23543 -2 0.190283)
(-1.23637 2 0.184091)
(0.0938587 2 1.24647)
(0.0938587 -2 1.24647)
(-1.23543 2 0.190283)
(-1.23446 -2 0.196471)
(0.100103 2 1.24599)
(0.100103 -2 1.24599)
(0.106345 -2 1.24547)
(-1.23446 2 0.196471)
(-1.23346 -2 0.202654)
(0.106345 2 1.24547)
(-1.23346 2 0.202654)
(-1.23243 -2 0.208831)
(0.112584 -2 1.24492)
(-1.23137 -2 0.215004)
(-1.23243 2 0.208831)
(0.112584 2 1.24492)
(0.11882 -2 1.24434)
(-1.23137 2 0.215004)
(0.11882 2 1.24434)
(-1.23028 -2 0.221171)
(0.125053 -2 1.24373)
(-1.23028 2 0.221171)
(0.131283 -2 1.24309)
(0.125053 2 1.24373)
(-1.22915 -2 0.227333)
(-1.22915 2 0.227333)
(0.131283 2 1.24309)
(-1.228 -2 0.233488)
(-1.22681 -2 0.239638)
(-1.228 2 0.233488)
(0.13751 2 1.24241)
(0.13751 -2 1.24241)
(0.143734 -2 1.24171)
(-1.22681 2 0.239638)
(0.143734 2 1.24171)
(-1.2256 -2 0.245782)
(-1.2256 2 0.245782)
(0.149953 -2 1.24097)
(0.156169 -2 1.24021)
(0.149953 2 1.24097)
(-1.22435 -2 0.25192)
(-1.22435 2 0.25192)
(0.162382 -2 1.23941)
(0.156169 2 1.24021)
(-1.22307 -2 0.258051)
(-1.22177 -2 0.264176)
(-1.22307 2 0.258051)
(0.16859 -2 1.23858)
(0.162382 2 1.23941)
(-1.22177 2 0.264176)
(0.174793 -2 1.23772)
(-1.22043 -2 0.270295)
(0.16859 2 1.23858)
(-1.22043 2 0.270295)
(0.174793 2 1.23772)
(0.180993 -2 1.23683)
(-1.21906 -2 0.276406)
(-1.21906 2 0.276406)
(0.180993 2 1.23683)
(0.187188 -2 1.2359)
(-1.21766 -2 0.282511)
(-1.21623 -2 0.288608)
(-1.21766 2 0.282511)
(0.187188 2 1.2359)
(-1.21623 2 0.288608)
(0.193378 2 1.23495)
(0.193378 -2 1.23495)
(-1.21476 -2 0.294699)
(0.199563 -2 1.23397)
(-1.21476 2 0.294699)
(-1.21327 2 0.300782)
(0.199563 2 1.23397)
(0.205743 -2 1.23295)
(-1.21327 -2 0.300782)
(-1.21175 2 0.306857)
(0.205743 2 1.23295)
(-1.21175 -2 0.306857)
(0.211918 -2 1.23191)
(-1.2102 -2 0.312924)
(-1.2102 2 0.312924)
(0.211918 2 1.23191)
(0.218088 -2 1.23083)
(-1.20861 2 0.318984)
(0.218088 2 1.23083)
(-1.20861 -2 0.318984)
(0.224252 -2 1.22972)
(-1.207 2 0.325036)
(-1.207 -2 0.325036)
(0.224252 2 1.22972)
(0.230411 -2 1.22858)
(-1.20536 2 0.33108)
(-1.20536 -2 0.33108)
(0.230411 2 1.22858)
(-1.20368 -2 0.337115)
(-1.20368 2 0.337115)
(0.236564 2 1.22741)
(0.236564 -2 1.22741)
(0.242711 -2 1.22621)
(-1.20198 -2 0.343142)
(-1.20198 2 0.343142)
(0.242711 2 1.22621)
(0.248852 -2 1.22498)
(-1.20024 -2 0.34916)
(-1.20024 2 0.34916)
(0.248852 2 1.22498)
(0.254987 -2 1.22372)
(-1.19848 -2 0.355169)
(-1.19669 -2 0.36117)
(-1.19848 2 0.355169)
(0.254987 2 1.22372)
(0.261115 -2 1.22242)
(-1.19669 2 0.36117)
(0.261115 2 1.22242)
(0.267236 -2 1.2211)
(-1.19486 -2 0.367161)
(-1.19486 2 0.367161)
(0.267236 2 1.2211)
(0.273351 -2 1.21975)
(-1.19301 -2 0.373144)
(-1.19301 2 0.373144)
(0.273351 2 1.21975)
(0.279459 -2 1.21836)
(-1.19112 -2 0.379116)
(-1.18921 -2 0.38508)
(-1.19112 2 0.379116)
(0.279459 2 1.21836)
(-1.18921 2 0.38508)
(0.285561 2 1.21695)
(0.285561 -2 1.21695)
(0.291654 -2 1.2155)
(-1.18726 -2 0.391033)
(-1.18726 2 0.391033)
(0.291654 2 1.2155)
(0.297741 -2 1.21402)
(-1.18529 -2 0.396977)
(-1.18529 2 0.396977)
(0.297741 2 1.21402)
(0.30382 -2 1.21252)
(-1.18328 -2 0.402911)
(-1.18125 -2 0.408835)
(-1.18328 2 0.402911)
(0.30382 2 1.21252)
(0.309892 -2 1.21098)
(-1.18125 2 0.408835)
(0.309892 2 1.21098)
(0.315955 -2 1.20941)
(-1.17919 -2 0.414748)
(-1.17919 2 0.414748)
(0.322011 -2 1.20781)
(0.315955 2 1.20941)
(-1.17709 -2 0.420652)
(-1.17709 2 0.420652)
(0.328059 -2 1.20618)
(-1.17497 -2 0.426544)
(0.322011 2 1.20781)
(-1.17282 -2 0.432426)
(-1.17497 2 0.426544)
(0.328059 2 1.20618)
(0.334098 -2 1.20452)
(-1.17282 2 0.432426)
(0.334098 2 1.20452)
(0.340129 -2 1.20283)
(-1.17064 -2 0.438297)
(-1.17064 2 0.438297)
(0.340129 2 1.20283)
(0.346152 -2 1.20112)
(-1.16843 2 0.444157)
(-1.16843 -2 0.444157)
(-1.16619 2 0.450006)
(0.346152 2 1.20112)
(0.352166 -2 1.19937)
(-1.16619 -2 0.450006)
(0.358171 -2 1.19759)
(0.352166 2 1.19937)
(-1.16392 2 0.455843)
(-1.16392 -2 0.455843)
(-1.16162 -2 0.461669)
(0.364167 -2 1.19578)
(0.358171 2 1.19759)
(-1.16162 2 0.461669)
(0.370154 -2 1.19394)
(0.364167 2 1.19578)
(-1.15929 2 0.467484)
(-1.15929 -2 0.467484)
(0.376131 -2 1.19207)
(0.370154 2 1.19394)
(-1.15694 2 0.473287)
(-1.15694 -2 0.473287)
(0.376131 2 1.19207)
(-1.15455 2 0.479077)
(-1.15455 -2 0.479077)
(-1.15213 -2 0.484856)
(0.382099 -2 1.19017)
(0.388058 -2 1.18824)
(-1.15213 2 0.484856)
(0.382099 2 1.19017)
(0.394007 -2 1.18628)
(-1.14969 2 0.490623)
(0.388058 2 1.18824)
(-1.14969 -2 0.490623)
(0.399945 -2 1.18429)
(-1.14722 2 0.496377)
(0.394007 2 1.18628)
(-1.14722 -2 0.496377)
(0.405874 -2 1.18227)
(-1.14472 2 0.502119)
(0.399945 2 1.18429)
(-1.14472 -2 0.502119)
(-1.14219 -2 0.507849)
(0.411793 -2 1.18022)
(-1.14219 2 0.507849)
(0.405874 2 1.18227)
(-1.13963 2 0.513565)
(0.417701 -2 1.17814)
(-1.13963 -2 0.513565)
(0.411793 2 1.18022)
(-1.13704 2 0.519269)
(0.423599 -2 1.17604)
(-1.13704 -2 0.519269)
(0.417701 2 1.17814)
(-1.13442 2 0.524959)
(0.429486 -2 1.1739)
(-1.13442 -2 0.524959)
(-1.13178 -2 0.530637)
(0.423599 2 1.17604)
(-1.13178 2 0.530637)
(0.435363 -2 1.17173)
(0.429486 2 1.1739)
(-1.12911 -2 0.536301)
(0.441228 -2 1.16954)
(-1.12911 2 0.536301)
(0.435363 2 1.17173)
(-1.12641 -2 0.541952)
(0.447083 -2 1.16731)
(-1.12641 2 0.541952)
(0.441228 2 1.16954)
(-1.12368 -2 0.547589)
(-1.12092 -2 0.553212)
(0.452926 -2 1.16506)
(-1.12368 2 0.547589)
(0.447083 2 1.16731)
(-1.12092 2 0.553212)
(0.458758 -2 1.16277)
(0.452926 2 1.16506)
(-1.11813 -2 0.558821)
(-1.11813 2 0.558821)
(0.464578 -2 1.16046)
(0.458758 2 1.16277)
(-1.11532 -2 0.564417)
(-1.11532 2 0.564417)
(0.470387 -2 1.15812)
(0.464578 2 1.16046)
(-1.11248 -2 0.569998)
(-1.10961 -2 0.575565)
(0.476184 -2 1.15575)
(-1.11248 2 0.569998)
(0.470387 2 1.15812)
(-1.10961 2 0.575565)
(0.481968 -2 1.15335)
(0.476184 2 1.15575)
(-1.10671 -2 0.581117)
(0.481968 2 1.15335)
(-1.10671 2 0.581117)
(0.487741 -2 1.15092)
(-1.10378 2 0.586655)
(-1.10378 -2 0.586655)
(0.487741 2 1.15092)
(0.493502 -2 1.14846)
(-1.10083 2 0.592178)
(-1.10083 -2 0.592178)
(-1.09785 -2 0.597687)
(0.493502 2 1.14846)
(0.49925 -2 1.14597)
(-1.09785 2 0.597687)
(0.49925 2 1.14597)
(0.504986 -2 1.14346)
(-1.09484 2 0.60318)
(-1.09484 -2 0.60318)
(0.504986 2 1.14346)
(0.510708 -2 1.14091)
(-1.0918 2 0.608658)
(-1.0918 -2 0.608658)
(0.510708 2 1.14091)
(0.516419 -2 1.13834)
(-1.08874 2 0.614121)
(-1.08874 -2 0.614121)
(-1.08565 -2 0.619568)
(0.516419 2 1.13834)
(-1.08565 2 0.619568)
(0.522116 2 1.13574)
(0.522116 -2 1.13574)
(0.5278 -2 1.13311)
(-1.08253 2 0.625)
(-1.08253 -2 0.625)
(0.533471 -2 1.13045)
(-1.07939 2 0.630416)
(0.5278 2 1.13311)
(-1.07939 -2 0.630416)
(0.539128 -2 1.12776)
(-1.07621 2 0.635817)
(0.533471 2 1.13045)
(-1.07621 -2 0.635817)
(-1.07302 -2 0.641201)
(0.544772 -2 1.12504)
(0.539128 2 1.12776)
(-1.07302 2 0.641201)
(0.544772 2 1.12504)
(-1.06979 2 0.646569)
(-1.06979 -2 0.646569)
(0.550402 -2 1.1223)
(0.556018 -2 1.11953)
(-1.06654 2 0.651921)
(0.550402 2 1.1223)
(-1.06654 -2 0.651921)
(-1.06326 2 0.657257)
(0.556018 2 1.11953)
(-1.06326 -2 0.657257)
(-1.05995 -2 0.662576)
(0.561621 -2 1.11673)
(0.567209 -2 1.1139)
(-1.05995 2 0.662576)
(0.561621 2 1.11673)
(-1.05662 2 0.667879)
(-1.05662 -2 0.667879)
(0.567209 2 1.1139)
(-1.05326 2 0.673164)
(0.572783 -2 1.11104)
(0.578343 -2 1.10816)
(-1.05326 -2 0.673164)
(0.572783 2 1.11104)
(-1.04987 2 0.678433)
(-1.04987 -2 0.678433)
(-1.04646 -2 0.683685)
(0.578343 2 1.10816)
(-1.04646 2 0.683685)
(0.583888 -2 1.10525)
(0.589419 -2 1.10231)
(0.583888 2 1.10525)
(-1.04302 2 0.68892)
(-1.04302 -2 0.68892)
(0.589419 2 1.10231)
(-1.03955 2 0.694137)
(-1.03955 -2 0.694137)
(0.594934 -2 1.09934)
(0.594934 2 1.09934)
(-1.03606 2 0.699337)
(-1.03606 -2 0.699337)
(-1.03255 -2 0.70452)
(0.600435 -2 1.09635)
(0.605921 -2 1.09333)
(0.600435 2 1.09635)
(-1.03255 2 0.70452)
(0.605921 2 1.09333)
(-1.029 2 0.709684)
(-1.029 -2 0.709684)
(0.611391 -2 1.09028)
(0.616846 -2 1.0872)
(0.611391 2 1.09028)
(-1.02543 -2 0.714831)
(-1.02543 2 0.714831)
(-1.02184 2 0.71996)
(0.616846 2 1.0872)
(-1.02184 -2 0.71996)
(-1.01822 -2 0.725071)
(0.622286 2 1.08409)
(0.622286 -2 1.08409)
(-1.01822 2 0.725071)
(0.62771 -2 1.08096)
(-1.01457 2 0.730164)
(0.62771 2 1.08096)
(-1.01457 -2 0.730164)
(-1.0109 2 0.735238)
(0.633118 2 1.0778)
(0.633118 -2 1.0778)
(0.638511 -2 1.07462)
(-1.0109 -2 0.735238)
(-1.00721 -2 0.740294)
(-1.00348 -2 0.745331)
(-1.00721 2 0.740294)
(0.638511 2 1.07462)
(-1.00348 2 0.745331)
(0.643887 2 1.07141)
(0.643887 -2 1.07141)
(0.649247 -2 1.06817)
(-0.999737 -2 0.75035)
(-0.999737 2 0.75035)
(0.649247 2 1.06817)
(-0.995965 -2 0.75535)
(-0.995965 2 0.75535)
(0.654591 2 1.0649)
(0.654591 -2 1.0649)
(0.659919 -2 1.06161)
(-0.992168 -2 0.76033)
(-0.988346 -2 0.765292)
(-0.992168 2 0.76033)
(0.659919 2 1.06161)
(-0.988346 2 0.765292)
(0.665229 2 1.05829)
(0.665229 -2 1.05829)
(-0.984499 -2 0.770235)
(-0.984499 2 0.770235)
(0.670524 2 1.05494)
(0.670524 -2 1.05494)
(-0.980627 -2 0.775158)
(0.675801 -2 1.05157)
(-0.980627 2 0.775158)
(0.675801 2 1.05157)
(-0.976731 -2 0.780062)
(-0.972811 -2 0.784946)
(-0.976731 2 0.780062)
(0.681061 2 1.04817)
(0.681061 -2 1.04817)
(0.686305 -2 1.04474)
(-0.972811 2 0.784946)
(-0.968865 -2 0.78981)
(0.686305 2 1.04474)
(-0.968865 2 0.78981)
(-0.964896 -2 0.794655)
(0.691531 2 1.04129)
(0.691531 -2 1.04129)
(-0.964896 2 0.794655)
(0.696739 -2 1.03781)
(-0.960902 -2 0.799479)
(-0.960902 2 0.799479)
(0.696739 2 1.03781)
(-0.956884 -2 0.804284)
(-0.952842 -2 0.809068)
(0.701931 -2 1.03431)
(0.707104 -2 1.03078)
(-0.956884 2 0.804284)
(0.701931 2 1.03431)
(-0.952842 2 0.809068)
(0.707104 2 1.03078)
(-0.948777 -2 0.813832)
(0.71226 -2 1.02722)
(-0.948777 2 0.813832)
(0.717398 -2 1.02364)
(0.71226 2 1.02722)
(-0.944687 -2 0.818576)
(-0.944687 2 0.818576)
(0.717398 2 1.02364)
(-0.940574 -2 0.823299)
(-0.936437 -2 0.828001)
(-0.940574 2 0.823299)
(0.722518 2 1.02003)
(0.722518 -2 1.02003)
(0.72762 -2 1.0164)
(-0.936437 2 0.828001)
(0.72762 2 1.0164)
(-0.932276 -2 0.832683)
(-0.932276 2 0.832683)
(0.732703 -2 1.01274)
(0.737768 -2 1.00906)
(0.732703 2 1.01274)
(-0.928092 -2 0.837344)
(-0.928092 2 0.837344)
(0.737768 2 1.00906)
(-0.923885 -2 0.841983)
(-0.919655 -2 0.846602)
(-0.923885 2 0.841983)
(0.742815 -2 1.00535)
(0.747843 -2 1.00161)
(0.742815 2 1.00535)
(-0.919655 2 0.846602)
(0.747843 2 1.00161)
(-0.915401 -2 0.851199)
(-0.915401 2 0.851199)
(0.752852 -2 0.997854)
(0.757842 -2 0.99407)
(-0.911125 2 0.855775)
(-0.911125 -2 0.855775)
(0.752852 2 0.997854)
(-0.906826 2 0.86033)
(0.757842 2 0.99407)
(-0.906826 -2 0.86033)
(-0.902504 -2 0.864863)
(-0.902504 2 0.864863)
(0.762814 2 0.99026)
(0.762814 -2 0.99026)
(0.767766 -2 0.986426)
(-0.898159 2 0.869374)
(-0.898159 -2 0.869374)
(0.767766 2 0.986426)
(-0.893792 2 0.873863)
(-0.893792 -2 0.873863)
(0.772699 2 0.982566)
(0.772699 -2 0.982566)
(0.777612 -2 0.978682)
(-0.889402 -2 0.87833)
(-0.889402 2 0.87833)
(-0.88499 -2 0.882776)
(0.777612 2 0.978682)
(-0.88499 2 0.882776)
(0.782506 2 0.974774)
(0.782506 -2 0.974774)
(-0.880556 -2 0.887199)
(-0.880556 2 0.887199)
(0.78738 2 0.970841)
(0.78738 -2 0.970841)
(0.792235 -2 0.966884)
(-0.876099 -2 0.8916)
(-0.876099 2 0.8916)
(0.792235 2 0.966884)
(-0.871621 -2 0.895978)
(-0.867121 -2 0.900334)
(-0.871621 2 0.895978)
(0.797069 2 0.962902)
(0.797069 -2 0.962902)
(0.801884 -2 0.958896)
(-0.867121 2 0.900334)
(0.801884 2 0.958896)
(-0.862599 -2 0.904668)
(-0.862599 2 0.904668)
(0.806679 2 0.954866)
(-0.858055 -2 0.908978)
(0.806679 -2 0.954866)
(0.811453 -2 0.950812)
(-0.858055 2 0.908978)
(-0.85349 -2 0.913266)
(0.811453 2 0.950812)
(-0.848903 -2 0.917531)
(-0.85349 2 0.913266)
(0.816207 2 0.946735)
(-0.848903 2 0.917531)
(0.816207 -2 0.946735)
(0.82094 -2 0.942633)
(-0.844295 -2 0.921773)
(0.82094 2 0.942633)
(-0.844295 2 0.921773)
(-0.839666 -2 0.925992)
(0.825653 2 0.938508)
(-0.839666 2 0.925992)
(0.825653 -2 0.938508)
(0.830345 -2 0.934359)
(-0.835016 -2 0.930187)
(-0.830345 -2 0.934359)
(-0.835016 2 0.930187)
(0.830345 2 0.934359)
(-0.830345 2 0.934359)
(0.835016 2 0.930187)
(0.835016 -2 0.930187)
(0.839666 -2 0.925992)
(-0.825653 -2 0.938508)
(-0.825653 2 0.938508)
(0.839666 2 0.925992)
(-0.82094 -2 0.942633)
(-0.82094 2 0.942633)
(0.844295 2 0.921773)
(0.844295 -2 0.921773)
(0.848903 -2 0.917531)
(-0.816207 -2 0.946735)
(-0.811453 -2 0.950812)
(-0.816207 2 0.946735)
(0.848903 2 0.917531)
(-0.811453 2 0.950812)
(0.85349 2 0.913266)
(0.85349 -2 0.913266)
(0.858055 -2 0.908978)
(-0.806679 2 0.954866)
(-0.806679 -2 0.954866)
(0.858055 2 0.908978)
(-0.801884 2 0.958896)
(-0.801884 -2 0.958896)
(0.862599 -2 0.904668)
(0.862599 2 0.904668)
(-0.797069 2 0.962902)
(0.867121 -2 0.900334)
(-0.797069 -2 0.962902)
(-0.792235 -2 0.966884)
(-0.792235 2 0.966884)
(0.867121 2 0.900334)
(0.871621 2 0.895978)
(0.871621 -2 0.895978)
(-0.78738 2 0.970841)
(0.876099 -2 0.8916)
(-0.78738 -2 0.970841)
(-0.782506 2 0.974774)
(0.876099 2 0.8916)
(-0.782506 -2 0.974774)
(-0.777612 2 0.978682)
(0.880556 2 0.887199)
(0.880556 -2 0.887199)
(-0.777612 -2 0.978682)
(0.88499 -2 0.882776)
(-0.772699 -2 0.982566)
(-0.772699 2 0.982566)
(0.88499 2 0.882776)
(-0.767766 2 0.986426)
(-0.767766 -2 0.986426)
(0.889402 2 0.87833)
(0.889402 -2 0.87833)
(-0.762814 2 0.99026)
(0.893792 -2 0.873863)
(-0.762814 -2 0.99026)
(0.898159 -2 0.869374)
(0.893792 2 0.873863)
(-0.757842 2 0.99407)
(-0.757842 -2 0.99407)
(0.898159 2 0.869374)
(-0.752852 -2 0.997854)
(-0.752852 2 0.997854)
(0.902504 -2 0.864863)
(0.906826 -2 0.86033)
(0.902504 2 0.864863)
(-0.747843 2 1.00161)
(-0.747843 -2 1.00161)
(0.906826 2 0.86033)
(-0.742815 2 1.00535)
(-0.742815 -2 1.00535)
(0.911125 -2 0.855775)
(0.915401 -2 0.851199)
(0.911125 2 0.855775)
(-0.737768 2 1.00906)
(-0.737768 -2 1.00906)
(-0.732703 -2 1.01274)
(0.915401 2 0.851199)
(-0.732703 2 1.01274)
(0.919655 -2 0.846602)
(0.923885 -2 0.841983)
(-0.72762 -2 1.0164)
(0.919655 2 0.846602)
(-0.72762 2 1.0164)
(-0.722518 -2 1.02003)
(0.923885 2 0.841983)
(-0.722518 2 1.02003)
(0.928092 -2 0.837344)
(0.932276 -2 0.832683)
(-0.717398 -2 1.02364)
(-0.71226 -2 1.02722)
(0.928092 2 0.837344)
(-0.717398 2 1.02364)
(0.932276 2 0.832683)
(-0.71226 2 1.02722)
(-0.707104 -2 1.03078)
(0.936437 -2 0.828001)
(0.940574 -2 0.823299)
(-0.707104 2 1.03078)
(0.936437 2 0.828001)
(-0.701931 -2 1.03431)
(-0.701931 2 1.03431)
(0.940574 2 0.823299)
(-0.696739 -2 1.03781)
(-0.691531 -2 1.04129)
(0.944687 -2 0.818576)
(0.948777 -2 0.813832)
(-0.696739 2 1.03781)
(0.944687 2 0.818576)
(-0.691531 2 1.04129)
(0.948777 2 0.813832)
(-0.686305 -2 1.04474)
(0.952842 -2 0.809068)
(0.956884 -2 0.804284)
(-0.686305 2 1.04474)
(0.952842 2 0.809068)
(-0.681061 2 1.04817)
(-0.681061 -2 1.04817)
(0.956884 2 0.804284)
(-0.675801 2 1.05157)
(-0.675801 -2 1.05157)
(-0.670524 -2 1.05494)
(0.960902 -2 0.799479)
(0.964896 -2 0.794655)
(0.960902 2 0.799479)
(-0.670524 2 1.05494)
(0.964896 2 0.794655)
(-0.665229 2 1.05829)
(-0.665229 -2 1.05829)
(0.968865 -2 0.78981)
(0.972811 -2 0.784946)
(0.968865 2 0.78981)
(-0.659919 2 1.06161)
(-0.659919 -2 1.06161)
(0.972811 2 0.784946)
(-0.654591 2 1.0649)
(-0.654591 -2 1.0649)
(-0.649247 -2 1.06817)
(0.976731 2 0.780062)
(0.976731 -2 0.780062)
(0.980627 -2 0.775158)
(-0.649247 2 1.06817)
(0.980627 2 0.775158)
(-0.643887 2 1.07141)
(-0.643887 -2 1.07141)
(0.984499 2 0.770235)
(-0.638511 2 1.07462)
(0.984499 -2 0.770235)
(0.988346 -2 0.765292)
(-0.638511 -2 1.07462)
(-0.633118 2 1.0778)
(0.988346 2 0.765292)
(0.992168 -2 0.76033)
(-0.633118 -2 1.0778)
(-0.62771 2 1.08096)
(0.992168 2 0.76033)
(0.995965 -2 0.75535)
(-0.62771 -2 1.08096)
(-0.622286 -2 1.08409)
(-0.622286 2 1.08409)
(0.995965 2 0.75535)
(-0.616846 2 1.0872)
(0.999737 2 0.75035)
(-0.616846 -2 1.0872)
(0.999737 -2 0.75035)
(1.00348 -2 0.745331)
(-0.611391 2 1.09028)
(-0.611391 -2 1.09028)
(1.00721 -2 0.740294)
(1.00348 2 0.745331)
(-0.605921 2 1.09333)
(-0.605921 -2 1.09333)
(1.0109 -2 0.735238)
(-0.600435 -2 1.09635)
(1.00721 2 0.740294)
(-0.600435 2 1.09635)
(1.0109 2 0.735238)
(-0.594934 2 1.09934)
(-0.594934 -2 1.09934)
(1.01457 -2 0.730164)
(1.01822 -2 0.725071)
(1.01457 2 0.730164)
(-0.589419 2 1.10231)
(-0.589419 -2 1.10231)
(1.02184 -2 0.71996)
(1.01822 2 0.725071)
(-0.583888 2 1.10525)
(-0.583888 -2 1.10525)
(1.02543 -2 0.714831)
(-0.578343 -2 1.10816)
(1.02184 2 0.71996)
(-0.578343 2 1.10816)
(1.02543 2 0.714831)
(-0.572783 2 1.11104)
(-0.572783 -2 1.11104)
(1.029 -2 0.709684)
(1.03255 -2 0.70452)
(1.029 2 0.709684)
(-0.567209 2 1.1139)
(-0.567209 -2 1.1139)
(1.03606 -2 0.699337)
(1.03255 2 0.70452)
(-0.561621 2 1.11673)
(-0.561621 -2 1.11673)
(-0.556018 -2 1.11953)
(1.03606 2 0.699337)
(-0.556018 2 1.11953)
(1.03955 -2 0.694137)
(1.04302 -2 0.68892)
(1.03955 2 0.694137)
(-0.550402 -2 1.1223)
(-0.550402 2 1.1223)
(1.04646 -2 0.683685)
(-0.544772 2 1.12504)
(1.04302 2 0.68892)
(-0.544772 -2 1.12504)
(1.04987 -2 0.678433)
(1.04646 2 0.683685)
(-0.539128 2 1.12776)
(-0.539128 -2 1.12776)
(-0.533471 -2 1.13045)
(-0.533471 2 1.13045)
(1.04987 2 0.678433)
(1.05326 -2 0.673164)
(1.05662 -2 0.667879)
(-0.5278 2 1.13311)
(1.05326 2 0.673164)
(-0.5278 -2 1.13311)
(1.05995 -2 0.662576)
(1.05662 2 0.667879)
(-0.522116 2 1.13574)
(-0.522116 -2 1.13574)
(-0.516419 -2 1.13834)
(1.06326 -2 0.657257)
(-0.510708 -2 1.14091)
(1.05995 2 0.662576)
(-0.516419 2 1.13834)
(-0.510708 2 1.14091)
(1.06326 2 0.657257)
(-0.504986 -2 1.14346)
(1.06654 -2 0.651921)
(-0.504986 2 1.14346)
(1.06979 -2 0.646569)
(1.06654 2 0.651921)
(-0.49925 -2 1.14597)
(1.06979 2 0.646569)
(-0.49925 2 1.14597)
(1.07302 -2 0.641201)
(-0.493502 -2 1.14846)
(-0.487741 -2 1.15092)
(-0.493502 2 1.14846)
(1.07302 2 0.641201)
(1.07621 -2 0.635817)
(-0.487741 2 1.15092)
(1.07621 2 0.635817)
(-0.481968 -2 1.15335)
(-0.481968 2 1.15335)
(1.07939 2 0.630416)
(1.07939 -2 0.630416)
(1.08253 -2 0.625)
(-0.476184 -2 1.15575)
(-0.476184 2 1.15575)
(1.08253 2 0.625)
(1.08565 -2 0.619568)
(-0.470387 -2 1.15812)
(-0.464578 -2 1.16046)
(-0.470387 2 1.15812)
(1.08565 2 0.619568)
(1.08874 -2 0.614121)
(-0.464578 2 1.16046)
(1.08874 2 0.614121)
(-0.458758 -2 1.16277)
(-0.458758 2 1.16277)
(1.0918 2 0.608658)
(1.0918 -2 0.608658)
(1.09484 -2 0.60318)
(-0.452926 -2 1.16506)
(-0.452926 2 1.16506)
(1.09484 2 0.60318)
(1.09785 -2 0.597687)
(-0.447083 -2 1.16731)
(-0.441228 -2 1.16954)
(-0.447083 2 1.16731)
(1.09785 2 0.597687)
(1.10083 -2 0.592178)
(-0.441228 2 1.16954)
(1.10083 2 0.592178)
(-0.435363 -2 1.17173)
(-0.435363 2 1.17173)
(1.10378 2 0.586655)
(-0.429486 -2 1.1739)
(1.10378 -2 0.586655)
(1.10671 -2 0.581117)
(-0.429486 2 1.1739)
(-0.423599 -2 1.17604)
(1.10671 2 0.581117)
(-0.417701 -2 1.17814)
(1.10961 -2 0.575565)
(-0.423599 2 1.17604)
(1.10961 2 0.575565)
(1.11248 -2 0.569998)
(-0.417701 2 1.17814)
(-0.411793 -2 1.18022)
(1.11248 2 0.569998)
(-0.411793 2 1.18022)
(1.11532 -2 0.564417)
(-0.405874 -2 1.18227)
(1.11813 -2 0.558821)
(1.11532 2 0.564417)
(-0.405874 2 1.18227)
(1.12092 -2 0.553212)
(-0.399945 -2 1.18429)
(-0.394007 -2 1.18628)
(1.11813 2 0.558821)
(-0.399945 2 1.18429)
(-0.394007 2 1.18628)
(1.12368 -2 0.547589)
(1.12092 2 0.553212)
(-0.388058 -2 1.18824)
(1.12368 2 0.547589)
(-0.388058 2 1.18824)
(-0.382099 2 1.19017)
(1.12641 2 0.541952)
(1.12641 -2 0.541952)
(-0.382099 -2 1.19017)
(1.12911 -2 0.536301)
(-0.376131 2 1.19207)
(1.13178 -2 0.530637)
(-0.376131 -2 1.19207)
(-0.370154 -2 1.19394)
(1.12911 2 0.536301)
(-0.370154 2 1.19394)
(1.13442 -2 0.524959)
(1.13178 2 0.530637)
(-0.364167 2 1.19578)
(-0.364167 -2 1.19578)
(1.13442 2 0.524959)
(-0.358171 2 1.19759)
(-0.358171 -2 1.19759)
(1.13704 -2 0.519269)
(1.13963 -2 0.513565)
(1.13704 2 0.519269)
(-0.352166 -2 1.19937)
(-0.352166 2 1.19937)
(-0.346152 -2 1.20112)
(1.14219 -2 0.507849)
(1.13963 2 0.513565)
(-0.346152 2 1.20112)
(1.14219 2 0.507849)
(1.14472 -2 0.502119)
(-0.340129 -2 1.20283)
(-0.340129 2 1.20283)
(1.14472 2 0.502119)
(-0.334098 -2 1.20452)
(-0.334098 2 1.20452)
(1.14722 2 0.496377)
(1.14722 -2 0.496377)
(1.14969 -2 0.490623)
(-0.328059 -2 1.20618)
(-0.322011 -2 1.20781)
(-0.328059 2 1.20618)
(1.14969 2 0.490623)
(1.15213 -2 0.484856)
(-0.322011 2 1.20781)
(1.15213 2 0.484856)
(-0.315955 -2 1.20941)
(1.15455 -2 0.479077)
(-0.315955 2 1.20941)
(1.15455 2 0.479077)
(-0.309892 -2 1.21098)
(-0.309892 2 1.21098)
(1.15694 2 0.473287)
(-0.30382 -2 1.21252)
(1.15694 -2 0.473287)
(-0.297741 -2 1.21402)
(1.15929 -2 0.467484)
(-0.30382 2 1.21252)
(1.15929 2 0.467484)
(-0.297741 2 1.21402)
(1.16162 -2 0.461669)
(-0.291654 -2 1.2155)
(1.16162 2 0.461669)
(1.16392 -2 0.455843)
(-0.291654 2 1.2155)
(-0.285561 -2 1.21695)
(1.16392 2 0.455843)
(-0.285561 2 1.21695)
(-0.279459 -2 1.21836)
(-0.273351 -2 1.21975)
(1.16619 2 0.450006)
(1.16619 -2 0.450006)
(-0.279459 2 1.21836)
(-0.273351 2 1.21975)
(1.16843 2 0.444157)
(1.16843 -2 0.444157)
(1.17064 -2 0.438297)
(-0.267236 -2 1.2211)
(-0.267236 2 1.2211)
(1.17064 2 0.438297)
(1.17282 -2 0.432426)
(-0.261115 -2 1.22242)
(-0.261115 2 1.22242)
(1.17282 2 0.432426)
(1.17497 -2 0.426544)
(-0.254987 -2 1.22372)
(-0.254987 2 1.22372)
(1.17497 2 0.426544)
(-0.248852 -2 1.22498)
(-0.242711 -2 1.22621)
(1.17709 2 0.420652)
(1.17709 -2 0.420652)
(-0.248852 2 1.22498)
(1.17919 -2 0.414748)
(-0.242711 2 1.22621)
(1.17919 2 0.414748)
(1.18125 -2 0.408835)
(-0.236564 2 1.22741)
(-0.236564 -2 1.22741)
(1.18125 2 0.408835)
(1.18328 -2 0.402911)
(-0.230411 2 1.22858)
(-0.230411 -2 1.22858)
(1.18328 2 0.402911)
(-0.224252 2 1.22972)
(-0.224252 -2 1.22972)
(-0.218088 -2 1.23083)
(1.18529 2 0.396977)
(1.18529 -2 0.396977)
(1.18726 -2 0.391033)
(-0.218088 2 1.23083)
(1.18726 2 0.391033)
(1.18921 -2 0.38508)
(-0.211918 2 1.23191)
(-0.211918 -2 1.23191)
(1.18921 2 0.38508)
(1.19112 -2 0.379116)
(-0.205743 2 1.23295)
(-0.205743 -2 1.23295)
(1.19112 2 0.379116)
(-0.199563 2 1.23397)
(-0.199563 -2 1.23397)
(-0.193378 -2 1.23495)
(1.19301 -2 0.373144)
(1.19301 2 0.373144)
(1.19486 -2 0.367161)
(-0.193378 2 1.23495)
(1.19669 -2 0.36117)
(-0.187188 2 1.2359)
(1.19486 2 0.367161)
(-0.187188 -2 1.2359)
(1.19669 2 0.36117)
(1.19848 -2 0.355169)
(-0.180993 2 1.23683)
(-0.180993 -2 1.23683)
(1.19848 2 0.355169)
(-0.174793 2 1.23772)
(-0.174793 -2 1.23772)
(-0.16859 -2 1.23858)
(1.20024 2 0.34916)
(-0.16859 2 1.23858)
(1.20024 -2 0.34916)
(1.20198 -2 0.343142)
(-0.162382 2 1.23941)
(-0.162382 -2 1.23941)
(1.20198 2 0.343142)
(1.20368 -2 0.337115)
(-0.156169 2 1.24021)
(1.20536 -2 0.33108)
(-0.156169 -2 1.24021)
(1.20368 2 0.337115)
(-0.149953 2 1.24097)
(-0.149953 -2 1.24097)
(-0.143734 -2 1.24171)
(1.20536 2 0.33108)
(1.207 -2 0.325036)
(1.20861 -2 0.318984)
(-0.143734 2 1.24171)
(1.207 2 0.325036)
(-0.13751 -2 1.24241)
(1.2102 -2 0.312924)
(-0.13751 2 1.24241)
(1.20861 2 0.318984)
(-0.131283 -2 1.24309)
(1.21175 -2 0.306857)
(-0.131283 2 1.24309)
(1.2102 2 0.312924)
(-0.125053 -2 1.24373)
(-0.11882 -2 1.24434)
(-0.125053 2 1.24373)
(1.21175 2 0.306857)
(-0.11882 2 1.24434)
(1.21327 -2 0.300782)
(1.21476 -2 0.294699)
(1.21327 2 0.300782)
(-0.112584 -2 1.24492)
(-0.112584 2 1.24492)
(1.21623 -2 0.288608)
(1.21476 2 0.294699)
(-0.106345 -2 1.24547)
(-0.106345 2 1.24547)
(1.21766 -2 0.282511)
(1.21623 2 0.288608)
(-0.100103 -2 1.24599)
(-0.0938587 -2 1.24647)
(-0.100103 2 1.24599)
(1.21766 2 0.282511)
(-0.0938587 2 1.24647)
(1.21906 -2 0.276406)
(1.22043 -2 0.270295)
(1.21906 2 0.276406)
(-0.0876121 2 1.24693)
(-0.0876121 -2 1.24693)
(1.22177 -2 0.264176)
(1.22043 2 0.270295)
(-0.0813633 2 1.24735)
(-0.0813633 -2 1.24735)
(1.22307 -2 0.258051)
(1.22177 2 0.264176)
(-0.0751124 2 1.24774)
(-0.0751124 -2 1.24774)
(-0.0688597 -2 1.2481)
(1.22307 2 0.258051)
(-0.0688597 2 1.2481)
(1.22435 -2 0.25192)
(1.2256 -2 0.245782)
(1.22435 2 0.25192)
(-0.0626052 2 1.24843)
(-0.0626052 -2 1.24843)
(1.22681 -2 0.239638)
(1.2256 2 0.245782)
(-0.0563492 2 1.24873)
(-0.0563492 -2 1.24873)
(1.228 -2 0.233488)
(1.22681 2 0.239638)
(-0.0500917 2 1.249)
(-0.0500917 -2 1.249)
(-0.043833 -2 1.24923)
(1.228 2 0.233488)
(-0.043833 2 1.24923)
(1.22915 -2 0.227333)
(1.23028 -2 0.221171)
(-0.0375732 2 1.24944)
(1.22915 2 0.227333)
(-0.0375732 -2 1.24944)
(1.23137 -2 0.215004)
(-0.0313124 2 1.24961)
(1.23028 2 0.221171)
(-0.0313124 -2 1.24961)
(1.23243 -2 0.208831)
(-0.0250509 2 1.24975)
(1.23137 2 0.215004)
(-0.0250509 -2 1.24975)
(-0.0187887 -2 1.24986)
(-0.0187887 2 1.24986)
(1.23243 2 0.208831)
(-0.0125261 2 1.24994)
(1.23346 2 0.202654)
(-0.0125261 -2 1.24994)
(1.23346 -2 0.202654)
(1.23446 -2 0.196471)
(-0.00626312 2 1.24998)
(-0.00626312 -2 1.24998)
(1.23446 2 0.196471)
(1.23543 -2 0.190283)
(1.23543 2 0.190283)
(1.23637 -2 0.184091)
(1.23637 2 0.184091)
(1.23728 2 0.177894)
(1.23728 -2 0.177894)
(1.23815 -2 0.171692)
(1.23815 2 0.171692)
(1.239 -2 0.165486)
(1.239 2 0.165486)
(1.23981 2 0.159276)
(1.23981 -2 0.159276)
(1.24059 -2 0.153062)
(1.24134 -2 0.146844)
(1.24059 2 0.153062)
(1.24206 -2 0.140622)
(1.24134 2 0.146844)
(1.24206 2 0.140622)
(1.24275 -2 0.134397)
(1.24341 -2 0.128169)
(1.24275 2 0.134397)
(1.24404 -2 0.121937)
(1.24341 2 0.128169)
(1.24463 -2 0.115702)
(1.24404 2 0.121937)
(1.24463 2 0.115702)
(1.2452 -2 0.109465)
(1.24573 -2 0.103224)
(1.2452 2 0.109465)
(1.24623 -2 0.0969812)
(1.24573 2 0.103224)
(1.2467 -2 0.0907357)
(1.24623 2 0.0969812)
(1.2467 2 0.0907357)
(1.24714 -2 0.084488)
(1.24755 -2 0.0782381)
(1.24714 2 0.084488)
(1.24793 -2 0.0719863)
(1.24755 2 0.0782381)
(1.24827 -2 0.0657327)
(1.24793 2 0.0719863)
(1.24827 2 0.0657327)
(1.24858 -2 0.0594774)
(1.24887 -2 0.0532206)
(1.24858 2 0.0594774)
(1.24912 -2 0.0469625)
(1.24887 2 0.0532206)
(1.24912 2 0.0469625)
(1.24934 -2 0.0407032)
(1.24934 2 0.0407032)
(1.24953 2 0.0344429)
(1.24953 -2 0.0344429)
(1.24968 -2 0.0281818)
(1.24968 2 0.0281818)
(1.24981 -2 0.0219199)
(1.24981 2 0.0219199)
(1.2499 -2 0.0156574)
(1.2499 2 0.0156574)
(1.24996 2 0.00939463)
(1.24996 -2 0.00939463)
(1.25 -2 0.00313157)
(1.25 2 0.00313157)
(1.25 -2 -0.00313157)
(1.25 2 -0.00313157)
(1.24996 -2 -0.00939463)
(1.24996 2 -0.00939463)
(1.2499 2 -0.0156574)
(1.2499 -2 -0.0156574)
(1.24981 -2 -0.0219199)
(1.24981 2 -0.0219199)
(1.24968 -2 -0.0281818)
(1.24968 2 -0.0281818)
(1.24953 -2 -0.0344429)
(1.24953 2 -0.0344429)
(1.24934 -2 -0.0407032)
(1.24934 2 -0.0407032)
(1.24912 -2 -0.0469625)
(1.24887 -2 -0.0532206)
(1.24912 2 -0.0469625)
(1.24858 -2 -0.0594774)
(1.24887 2 -0.0532206)
(1.24858 2 -0.0594774)
(1.24827 -2 -0.0657327)
(1.24793 -2 -0.0719863)
(1.24827 2 -0.0657327)
(1.24755 -2 -0.0782381)
(1.24793 2 -0.0719863)
(1.24714 -2 -0.084488)
(1.24755 2 -0.0782381)
(1.24714 2 -0.084488)
(1.2467 -2 -0.0907357)
(1.24623 -2 -0.0969812)
(1.2467 2 -0.0907357)
(1.24573 -2 -0.103224)
(1.24623 2 -0.0969812)
(1.2452 -2 -0.109465)
(1.24573 2 -0.103224)
(1.2452 2 -0.109465)
(1.24463 2 -0.115702)
(1.24463 -2 -0.115702)
(1.24404 2 -0.121937)
(1.24404 -2 -0.121937)
(1.24341 -2 -0.128169)
(1.24341 2 -0.128169)
(1.24275 -2 -0.134397)
(1.24275 2 -0.134397)
(1.24206 -2 -0.140622)
(1.24206 2 -0.140622)
(1.24134 2 -0.146844)
(1.24134 -2 -0.146844)
(1.24059 -2 -0.153062)
(1.24059 2 -0.153062)
(1.23981 -2 -0.159276)
(1.23981 2 -0.159276)
(1.239 -2 -0.165486)
(1.239 2 -0.165486)
(1.23815 2 -0.171692)
(1.23815 -2 -0.171692)
(1.23728 -2 -0.177894)
(1.23728 2 -0.177894)
(1.23637 -2 -0.184091)
(1.23637 2 -0.184091)
(1.23543 -2 -0.190283)
(1.23543 2 -0.190283)
(1.23446 2 -0.196471)
(1.23446 -2 -0.196471)
(1.23346 -2 -0.202654)
(1.23346 2 -0.202654)
(1.23243 -2 -0.208831)
(1.23243 2 -0.208831)
(1.23137 -2 -0.215004)
(1.23137 2 -0.215004)
(1.23028 2 -0.221171)
(1.23028 -2 -0.221171)
(1.22915 -2 -0.227333)
(1.22915 2 -0.227333)
(1.228 -2 -0.233488)
(1.228 2 -0.233488)
(1.22681 -2 -0.239638)
(1.22681 2 -0.239638)
(1.2256 2 -0.245782)
(1.2256 -2 -0.245782)
(1.22435 -2 -0.25192)
(1.22307 -2 -0.258051)
(1.22435 2 -0.25192)
(1.22177 -2 -0.264176)
(1.22307 2 -0.258051)
(1.22177 2 -0.264176)
(1.22043 2 -0.270295)
(1.22043 -2 -0.270295)
(1.21906 -2 -0.276406)
(1.21906 2 -0.276406)
(1.21766 -2 -0.282511)
(1.21766 2 -0.282511)
(1.21623 -2 -0.288608)
(1.21623 2 -0.288608)
(1.21476 -2 -0.294699)
(1.21327 -2 -0.300782)