/*--------------------------------*- C++ -*----------------------------------*\
  =========                 |
  \\      /  F ield         | OpenFOAM: The Open Source CFD Toolbox
   \\    /   O peration     | Website:  https://openfoam.org
    \\  /    A nd           | Version:  7
     \\/     M anipulation  |
\*---------------------------------------------------------------------------*/
FoamFile
{
    version     2.0;
    format      ascii;
    class       extendedFeatureEdgeMesh;
    location    "constant/extendedFeatureEdgeMesh";
    object      rotatingZone.extendedFeatureEdgeMesh;
}
// * * * * * * * * * * * * * * * * * * * * * * * * * * * * * * * * * * * * * //

// points

1984
(
(-0.0110806 0 -0.249754)
(-6.12323e-17 0 0.25)
(0.00475011 0 0.249955)
(-0.0158241 0 -0.249499)
(0.00633318 0 0.24992)
(-0.017404 0 -0.249393)
(-0.0205618 0 -0.249153)
(0.0126623 0 0.249679)
(-0.0252921 0 -0.248717)
(0.0158241 0 0.249499)
(-0.0284406 0 -0.248377)
(0.0189833 0 0.249278)
(-0.0315847 0 -0.247997)
(0.0221395 0 0.249018)
(-0.0347236 0 -0.247577)
(0.0252921 0 0.248717)
(-0.0394214 0 -0.246872)
(0.0300133 0 0.248192)
(-0.0409842 0 -0.246618)
(-0.0441049 0 -0.246079)
(0.0331548 0 0.247792)
(0.0347236 0 0.247577)
(-0.0472186 0 -0.2455)
(0.0378569 0 0.247117)
(-0.0518747 0 -0.244559)
(0.0425454 0 0.246353)
(-0.0549684 0 -0.243882)
(-0.056512 0 -0.243529)
(0.0456627 0 0.245794)
(-0.0595924 0 -0.242794)
(0.0487726 0 0.245196)
(0.0503246 0 0.244882)
(-0.0641948 0 -0.241618)
(0.0534226 0 0.244225)
(-0.0672503 0 -0.240785)
(0.0580534 0 0.243166)
(-0.070295 0 -0.239914)
(0.0595924 0 0.242794)
(-0.0733284 0 -0.239004)
(0.0626631 0 0.242019)
(-0.0763501 0 -0.238056)
(0.0657239 0 0.241206)
(-0.0808595 0 -0.236562)
(0.0718132 0 0.239464)
(-0.0868263 0 -0.234438)
(0.0748408 0 0.238535)
(-0.0897891 0 -0.233319)
(0.0778564 0 0.237568)
(-0.094206 0 -0.231571)
(0.0823562 0 0.236045)
(-0.0971319 0 -0.230359)
(0.0853397 0 0.234983)
(-0.100042 0 -0.22911)
(0.0883095 0 0.233883)
(0.0912651 0 0.232746)
(-0.104377 0 -0.227168)
(0.094206 0 0.231571)
(-0.110099 0 -0.224451)
(0.100042 0 0.22911)
(0.101491 0 0.228472)
(-0.114343 0 -0.222319)
(-0.11715 0 -0.220852)
(0.107246 0 0.225828)
(-0.119939 0 -0.219351)
(-0.124085 0 -0.217032)
(0.112933 0 0.223038)
(0.11715 0 0.220852)
(-0.129543 0 -0.213819)
(0.119939 0 0.219351)
(0.121325 0 0.218587)
(0.124085 0 0.217032)
(-0.136248 0 -0.20961)
(0.126824 0 0.215443)
(-0.141515 0 -0.206091)
(0.130895 0 0.212994)
(-0.142817 0 -0.205191)
(0.133582 0 0.211319)
(-0.145405 0 -0.203365)
(0.136248 0 0.20961)
(-0.149243 0 -0.200566)
(0.138893 0 0.207867)
(-0.153026 0 -0.197694)
(0.141515 0 0.206091)
(0.142817 0 0.205191)
(-0.155518 0 -0.19574)
(-0.157986 0 -0.193754)
(0.145405 0 0.203365)
(0.147969 0 0.201507)
(-0.160427 0 -0.191737)
(0.15051 0 0.199617)
(-0.162843 0 -0.18969)
(-0.164041 0 -0.188654)
(0.154276 0 0.196721)
(-0.167596 0 -0.185503)
(-0.168768 0 -0.184438)
(0.156755 0 0.194751)
(0.15921 0 0.192749)
(-0.173386 0 -0.180104)
(-0.174523 0 -0.179002)
(0.164041 0 0.188654)
(0.165233 0 0.187612)
(-0.176777 0 -0.176777)
(0.167596 0 0.185503)
(-0.179002 0 -0.174523)
(-0.181198 0 -0.172242)
(0.171091 0 0.182286)
(-0.184438 0 -0.168768)
(0.175653 0 0.177893)
(-0.187612 0 -0.165233)
(-0.188654 0 -0.164041)
(0.179002 0 0.174523)
(-0.190717 0 -0.161638)
(0.182286 0 0.171091)
(-0.193754 0 -0.157986)
(0.184438 0 0.168768)
(-0.19574 0 -0.155518)
(-0.196721 0 -0.154276)
(0.187612 0 0.165233)
(-0.198659 0 -0.151771)
(0.18969 0 0.162843)
(-0.201507 0 -0.147969)
(0.191737 0 0.160427)
(0.193754 0 0.157986)
(-0.205191 0 -0.142817)
(0.19574 0 0.155518)
(-0.206091 0 -0.141515)
(-0.208743 0 -0.137573)
(0.199617 0 0.15051)
(-0.210469 0 -0.134918)
(-0.212161 0 -0.132241)
(0.203365 0 0.145405)
(-0.213819 0 -0.129543)
(0.206091 0 0.141515)
(-0.217032 0 -0.124085)
(0.208743 0 0.137573)
(-0.217814 0 -0.122708)
(-0.219351 0 -0.119939)
(0.211319 0 0.133582)
(-0.220106 0 -0.118547)
(0.213819 0 0.129543)
(-0.222319 0 -0.114343)
(-0.223749 0 -0.111518)
(-0.225144 0 -0.108675)
(0.217032 0 0.124085)
(-0.226503 0 -0.105814)
(0.219351 0 0.119939)
(-0.227825 0 -0.102936)
(0.220852 0 0.11715)
(-0.22911 0 -0.100042)
(0.222319 0 0.114343)
(-0.230359 0 -0.0971319)
(-0.231571 0 -0.094206)
(0.225144 0 0.108675)
(-0.232746 0 -0.0912651)
(0.226503 0 0.105814)
(0.228472 0 0.101491)
(-0.234983 0 -0.0853397)
(0.22911 0 0.100042)
(-0.236045 0 -0.0823562)
(-0.23707 0 -0.0793595)
(0.231571 0 0.094206)
(-0.238056 0 -0.0763501)
(-0.239004 0 -0.0733284)
(0.233319 0 0.0897891)
(-0.239914 0 -0.070295)
(0.234983 0 0.0853397)
(-0.240785 0 -0.0672503)
(-0.241206 0 -0.0657239)
(0.236045 0 0.0823562)
(-0.242019 0 -0.0626631)
(0.23707 0 0.0793595)
(0.237568 0 0.0778564)
(-0.242794 0 -0.0595924)
(-0.243529 0 -0.056512)
(0.239004 0 0.0733284)
(-0.243882 0 -0.0549684)
(-0.244559 0 -0.0518747)
(0.240785 0 0.0672503)
(-0.245196 0 -0.0487726)
(0.241618 0 0.0641948)
(-0.245794 0 -0.0456627)
(0.242411 0 0.061129)
(-0.246079 0 -0.0441049)
(-0.246872 0 -0.0394214)
(0.243529 0 0.056512)
(-0.247117 0 -0.0378569)
(0.244225 0 0.0534226)
(-0.247997 0 -0.0315847)
(0.245196 0 0.0487726)
(-0.248377 0 -0.0284406)
(0.246353 0 0.0425454)
(-0.248873 0 -0.0237162)
(-0.249153 0 -0.0205618)
(0.247117 0 0.0378569)
(-0.249393 0 -0.017404)
(0.247577 0 0.0347236)
(0.248192 0 0.0300133)
(0.248717 0 0.0252921)
(-0.24992 0 -0.00633318)
(-0.24998 0 -0.00316684)
(0.249278 0 0.0189833)
(-0.249995 0 0.00158345)
(0.249499 0 0.0158241)
(0.249679 0 0.0126623)
(0.24992 0 0.00633318)
(-0.249679 0 0.0126623)
(0.25 0 1.2633e-16)
(-0.249278 0 0.0189833)
(-0.248873 0 0.0237162)
(0.249955 0 -0.00475011)
(0.249875 0 -0.007916)
(-0.248377 0 0.0284406)
(-0.247997 0 0.0315847)
(0.249594 0 -0.0142435)
(0.249499 0 -0.0158241)
(-0.247577 0 0.0347236)
(0.249278 0 -0.0189833)
(-0.246872 0 0.0394214)
(0.248873 0 -0.0237162)
(-0.246079 0 0.0441049)
(0.248552 0 -0.0268669)
(0.248377 0 -0.0284406)
(-0.245196 0 0.0487726)
(0.247997 0 -0.0315847)
(-0.244225 0 0.0534226)
(0.247577 0 -0.0347236)
(-0.243166 0 0.0580534)
(0.246618 0 -0.0409842)
(-0.241618 0 0.0641948)
(-0.241206 0 0.0657239)
(0.2455 0 -0.0472186)
(-0.239914 0 0.070295)
(0.244559 0 -0.0518747)
(0.243882 0 -0.0549684)
(-0.238535 0 0.0748408)
(-0.238056 0 0.0763501)
(0.243166 0 -0.0580534)
(0.242794 0 -0.0595924)
(-0.236045 0 0.0823562)
(0.242019 0 -0.0626631)
(-0.234983 0 0.0853397)
(0.241206 0 -0.0657239)
(-0.233883 0 0.0883095)
(-0.233319 0 0.0897891)
(0.239914 0 -0.070295)
(-0.231571 0 0.094206)
(0.238535 0 -0.0748408)
(-0.230359 0 0.0971319)
(0.238056 0 -0.0763501)
(-0.22911 0 0.100042)
(0.23707 0 -0.0793595)
(-0.227825 0 0.102936)
(0.236562 0 -0.0808595)
(-0.227168 0 0.104377)
(-0.225144 0 0.108675)
(0.234438 0 -0.0868263)
(0.233883 0 -0.0883095)
(-0.223038 0 0.112933)
(0.231571 0 -0.094206)
(-0.220852 0 0.11715)
(-0.219351 0 0.119939)
(-0.217814 0 0.122708)
(0.22911 0 -0.100042)
(-0.215443 0 0.126824)
(0.227168 0 -0.104377)
(-0.213819 0 0.129543)
(-0.212994 0 0.130895)
(-0.211319 0 0.133582)
(0.225144 0 -0.108675)
(-0.208743 0 0.137573)
(0.223038 0 -0.112933)
(0.220852 0 -0.11715)
(-0.206091 0 0.141515)
(0.219351 0 -0.119939)
(-0.204282 0 0.144114)
(0.217032 0 -0.124085)
(-0.201507 0 0.147969)
(0.216242 0 -0.125457)
(-0.197694 0 0.153026)
(-0.196721 0 0.154276)
(0.212994 0 -0.130895)
(-0.194751 0 0.156755)
(-0.192749 0 0.15921)
(0.211319 0 -0.133582)
(-0.18969 0 0.162843)
(0.207867 0 -0.138893)
(-0.186561 0 0.166418)
(0.206091 0 -0.141515)
(0.205191 0 -0.142817)
(-0.184438 0 0.168768)
(0.203365 0 -0.145405)
(-0.181198 0 0.172242)
(0.201507 0 -0.147969)
(0.200566 0 -0.149243)
(-0.176777 0 0.176777)
(0.197694 0 -0.153026)
(-0.175653 0 0.177893)
(-0.173386 0 0.180104)
(-0.171091 0 0.182286)
(0.193754 0 -0.157986)
(-0.168768 0 0.184438)
(0.190717 0 -0.161638)
(-0.164041 0 0.188654)
(-0.161638 0 0.190717)
(0.187612 0 -0.165233)
(0.185503 0 -0.167596)
(-0.156755 0 0.194751)
(0.183366 0 -0.169933)
(0.181198 0 -0.172242)
(-0.151771 0 0.198659)
(0.179002 0 -0.174523)
(0.175653 0 -0.177893)
(-0.14669 0 0.20244)
(0.172242 0 -0.181198)
(-0.142817 0 0.205191)
(0.171091 0 -0.182286)
(-0.140206 0 0.206984)
(0.167596 0 -0.185503)
(-0.136248 0 0.20961)
(0.166418 0 -0.186561)
(-0.134918 0 0.210469)
(0.164041 0 -0.188654)
(0.162843 0 -0.18969)
(-0.129543 0 0.213819)
(0.157986 0 -0.193754)
(-0.125457 0 0.216242)
(-0.122708 0 0.217814)
(0.155518 0 -0.19574)
(-0.119939 0 0.219351)
(0.151771 0 -0.198659)
(-0.114343 0 0.222319)
(0.149243 0 -0.200566)
(0.14669 0 -0.20244)
(-0.108675 0 0.225144)
(-0.105814 0 0.226503)
(0.141515 0 -0.206091)
(-0.102936 0 0.227825)
(0.140206 0 -0.206984)
(-0.100042 0 0.22911)
(0.137573 0 -0.208743)
(-0.0956709 0 0.23097)
(-0.094206 0 0.231571)
(0.133582 0 -0.211319)
(0.130895 0 -0.212994)
(-0.0912651 0 0.232746)
(-0.0883095 0 0.233883)
(0.128186 0 -0.214635)
(-0.0838496 0 0.235519)
(-0.0823562 0 0.236045)
(0.122708 0 -0.217814)
(-0.0793595 0 0.23707)
(0.118547 0 -0.220106)
(-0.0748408 0 0.238535)
(-0.0718132 0 0.239464)
(0.112933 0 -0.223038)
(-0.068774 0 0.240354)
(0.110099 0 -0.224451)
(0.108675 0 -0.225144)
(-0.0641948 0 0.241618)
(-0.061129 0 0.242411)
(0.105814 0 -0.226503)
(-0.0580534 0 0.243166)
(0.102936 0 -0.227825)
(-0.056512 0 0.243529)
(0.098589 0 -0.229739)
(-0.0518747 0 0.244559)
(0.094206 0 -0.231571)
(-0.0456627 0 0.245794)
(0.0912651 0 -0.232746)
(-0.0425454 0 0.246353)
(0.0868263 0 -0.234438)
(-0.036291 0 0.247352)
(-0.0347236 0 0.247577)
(0.0823562 0 -0.236045)
(-0.0300133 0 0.248192)
(-0.0268669 0 0.248552)
(-0.0237162 0 0.248873)
(0.0748408 0 -0.238535)
(-0.0205618 0 0.249153)
(0.070295 0 -0.239914)
(-0.0158241 0 0.249499)
(0.0672503 0 -0.240785)
(-0.0126623 0 0.249679)
(-0.0110806 0 0.249754)
(0.0641948 0 -0.241618)
(-0.007916 0 0.249875)
(0.0626631 0 -0.242019)
(-0.00316684 0 0.24998)
(0.0580534 0 -0.243166)
(0.056512 0 -0.243529)
(0.0534226 0 -0.244225)
(0.0472186 0 -0.2455)
(0.0456627 0 -0.245794)
(0.0425454 0 -0.246353)
(0.0409842 0 -0.246618)
(0.0378569 0 -0.247117)
(0.0347236 0 -0.247577)
(0.0300133 0 -0.248192)
(0.0284406 0 -0.248377)
(0.0252921 0 -0.248717)
(0.0189833 0 -0.249278)
(0.0126623 0 -0.249679)
(0.0094985 0 -0.249819)
(0.00633318 0 -0.24992)
(0.00316684 0 -0.24998)
(0.00158345 0 -0.249995)
(-0.00158345 0 -0.249995)
(-0.00475011 0 -0.249955)
(-0.0094985 0.01 -0.249819)
(-0.007916 0.01 -0.249875)
(-0.007916 0 -0.249875)
(-0.0094985 0 -0.249819)
(-0.0110806 0.01 -0.249754)
(0.00158345 0.01 0.249995)
(-6.12323e-17 0.01 0.25)
(0.00158345 0 0.249995)
(-0.0126623 0.01 -0.249679)
(-0.0126623 0 -0.249679)
(-0.0142435 0 -0.249594)
(0.00316684 0.01 0.24998)
(0.00316684 0 0.24998)
(-0.0142435 0.01 -0.249594)
(0.00475011 0.01 0.249955)
(-0.0158241 0.01 -0.249499)
(0.00633318 0.01 0.24992)
(-0.017404 0.01 -0.249393)
(-0.0189833 0 -0.249278)
(0.007916 0 0.249875)
(0.007916 0.01 0.249875)
(-0.0189833 0.01 -0.249278)
(0.0094985 0 0.249819)
(0.0094985 0.01 0.249819)
(-0.0205618 0.01 -0.249153)
(-0.0221395 0 -0.249018)
(0.0110806 0 0.249754)
(0.0110806 0.01 0.249754)
(-0.0221395 0.01 -0.249018)
(0.0126623 0.01 0.249679)
(-0.0237162 0 -0.248873)
(-0.0237162 0.01 -0.248873)
(0.0142435 0.01 0.249594)
(0.0142435 0 0.249594)
(-0.0268669 0 -0.248552)
(-0.0252921 0.01 -0.248717)
(0.0158241 0.01 0.249499)
(-0.0268669 0.01 -0.248552)
(-0.0284406 0.01 -0.248377)
(0.017404 0.01 0.249393)
(0.017404 0 0.249393)
(0.0189833 0.01 0.249278)
(-0.0300133 0.01 -0.248192)
(-0.0300133 0 -0.248192)
(0.0205618 0.01 0.249153)
(0.0205618 0 0.249153)
(-0.0315847 0.01 -0.247997)
(0.0221395 0.01 0.249018)
(-0.0331548 0.01 -0.247792)
(-0.0331548 0 -0.247792)
(0.0237162 0.01 0.248873)
(-0.0347236 0.01 -0.247577)
(0.0237162 0 0.248873)
(-0.036291 0.01 -0.247352)
(0.0252921 0.01 0.248717)
(-0.036291 0 -0.247352)
(0.0268669 0 0.248552)
(0.0268669 0.01 0.248552)
(-0.0378569 0.01 -0.247117)
(-0.0378569 0 -0.247117)
(0.0284406 0 0.248377)
(0.0284406 0.01 0.248377)
(-0.0394214 0.01 -0.246872)
(-0.0425454 0 -0.246353)
(0.0300133 0.01 0.248192)
(-0.0409842 0.01 -0.246618)
(0.0315847 0 0.247997)
(-0.0425454 0.01 -0.246353)
(0.0315847 0.01 0.247997)
(-0.0456627 0 -0.245794)
(-0.0441049 0.01 -0.246079)
(0.0331548 0.01 0.247792)
(-0.0456627 0.01 -0.245794)
(0.0347236 0.01 0.247577)
(0.036291 0 0.247352)
(-0.0472186 0.01 -0.2455)
(0.036291 0.01 0.247352)
(-0.0487726 0 -0.245196)
(-0.0503246 0 -0.244882)
(-0.0487726 0.01 -0.245196)
(0.0378569 0.01 0.247117)
(-0.0503246 0.01 -0.244882)
(0.0394214 0 0.246872)
(0.0394214 0.01 0.246872)
(-0.0518747 0.01 -0.244559)
(0.0409842 0 0.246618)
(0.0409842 0.01 0.246618)
(-0.0534226 0 -0.244225)
(-0.0534226 0.01 -0.244225)
(0.0425454 0.01 0.246353)
(0.0441049 0 0.246079)
(-0.0549684 0.01 -0.243882)
(0.0441049 0.01 0.246079)
(-0.056512 0.01 -0.243529)
(0.0456627 0.01 0.245794)
(-0.0580534 0 -0.243166)
(0.0472186 0 0.2455)
(-0.0580534 0.01 -0.243166)
(0.0472186 0.01 0.2455)
(-0.061129 0 -0.242411)
(-0.0595924 0.01 -0.242794)
(0.0487726 0.01 0.245196)
(-0.061129 0.01 -0.242411)
(0.0503246 0.01 0.244882)
(-0.0626631 0 -0.242019)
(-0.0626631 0.01 -0.242019)
(0.0518747 0.01 0.244559)
(0.0518747 0 0.244559)
(-0.0641948 0.01 -0.241618)
(0.0534226 0.01 0.244225)
(-0.0657239 0.01 -0.241206)
(-0.0657239 0 -0.241206)
(0.0549684 0.01 0.243882)
(0.0549684 0 0.243882)
(-0.0672503 0.01 -0.240785)
(-0.068774 0 -0.240354)
(0.056512 0.01 0.243529)
(0.056512 0 0.243529)
(-0.068774 0.01 -0.240354)
(0.0580534 0.01 0.243166)
(-0.070295 0.01 -0.239914)
(-0.0718132 0 -0.239464)
(0.0595924 0.01 0.242794)
(-0.0718132 0.01 -0.239464)
(0.061129 0 0.242411)
(0.061129 0.01 0.242411)
(-0.0733284 0.01 -0.239004)
(-0.0748408 0 -0.238535)
(0.0626631 0.01 0.242019)
(-0.0748408 0.01 -0.238535)
(0.0641948 0 0.241618)
(0.0641948 0.01 0.241618)
(-0.0763501 0.01 -0.238056)
(-0.0778564 0 -0.237568)
(0.0657239 0.01 0.241206)
(-0.0778564 0.01 -0.237568)
(0.0672503 0 0.240785)
(-0.0793595 0 -0.23707)
(0.0672503 0.01 0.240785)
(-0.0793595 0.01 -0.23707)
(0.068774 0 0.240354)
(0.068774 0.01 0.240354)
(-0.0823562 0 -0.236045)
(-0.0808595 0.01 -0.236562)
(0.070295 0 0.239914)
(-0.0823562 0.01 -0.236045)
(0.070295 0.01 0.239914)
(-0.0838496 0 -0.235519)
(0.0718132 0.01 0.239464)
(-0.0838496 0.01 -0.235519)
(0.0733284 0 0.239004)
(-0.0853397 0 -0.234983)
(0.0733284 0.01 0.239004)
(-0.0853397 0.01 -0.234983)
(-0.0868263 0.01 -0.234438)
(0.0748408 0.01 0.238535)
(0.0763501 0 0.238056)
(-0.0883095 0 -0.233883)
(-0.0883095 0.01 -0.233883)
(0.0763501 0.01 0.238056)
(-0.0897891 0.01 -0.233319)
(0.0778564 0.01 0.237568)
(-0.0912651 0 -0.232746)
(0.0793595 0 0.23707)
(-0.0912651 0.01 -0.232746)
(0.0793595 0.01 0.23707)
(0.0808595 0 0.236562)
(-0.0927374 0 -0.232163)
(0.0808595 0.01 0.236562)
(-0.0927374 0.01 -0.232163)
(-0.094206 0.01 -0.231571)
(0.0823562 0.01 0.236045)
(-0.0956709 0 -0.23097)
(0.0838496 0 0.235519)
(0.0838496 0.01 0.235519)
(-0.0956709 0.01 -0.23097)
(-0.098589 0 -0.229739)
(0.0853397 0.01 0.234983)
(-0.0971319 0.01 -0.230359)
(0.0868263 0 0.234438)
(-0.098589 0.01 -0.229739)
(0.0868263 0.01 0.234438)
(-0.100042 0.01 -0.22911)
(0.0883095 0.01 0.233883)
(-0.101491 0 -0.228472)
(0.0897891 0 0.233319)
(-0.101491 0.01 -0.228472)
(0.0897891 0.01 0.233319)
(0.0912651 0.01 0.232746)
(-0.102936 0 -0.227825)
(-0.102936 0.01 -0.227825)
(-0.104377 0.01 -0.227168)
(0.0927374 0.01 0.232163)
(0.0927374 0 0.232163)
(-0.105814 0.01 -0.226503)
(-0.105814 0 -0.226503)
(0.094206 0.01 0.231571)
(-0.107246 0.01 -0.225828)
(-0.107246 0 -0.225828)
(0.0956709 0.01 0.23097)
(-0.108675 0 -0.225144)
(0.0956709 0 0.23097)
(-0.108675 0.01 -0.225144)
(0.0971319 0.01 0.230359)
(0.0971319 0 0.230359)
(-0.110099 0.01 -0.224451)
(-0.111518 0 -0.223749)
(0.098589 0.01 0.229739)
(0.098589 0 0.229739)
(-0.111518 0.01 -0.223749)
(0.100042 0.01 0.22911)
(-0.112933 0.01 -0.223038)
(-0.112933 0 -0.223038)
(0.101491 0.01 0.228472)
(-0.114343 0.01 -0.222319)
(-0.115749 0 -0.22159)
(0.102936 0.01 0.227825)
(0.102936 0 0.227825)
(-0.115749 0.01 -0.22159)
(0.104377 0.01 0.227168)
(0.104377 0 0.227168)
(-0.11715 0.01 -0.220852)
(-0.118547 0 -0.220106)
(0.105814 0.01 0.226503)
(0.105814 0 0.226503)
(-0.118547 0.01 -0.220106)
(0.107246 0.01 0.225828)
(-0.119939 0.01 -0.219351)
(0.108675 0 0.225144)
(0.108675 0.01 0.225144)
(-0.121325 0 -0.218587)
(-0.121325 0.01 -0.218587)
(0.110099 0 0.224451)
(0.110099 0.01 0.224451)
(-0.122708 0.01 -0.217814)
(-0.122708 0 -0.217814)
(0.111518 0 0.223749)
(0.111518 0.01 0.223749)
(-0.124085 0.01 -0.217032)
(0.112933 0.01 0.223038)
(-0.125457 0 -0.216242)
(-0.125457 0.01 -0.216242)
(0.114343 0 0.222319)
(0.114343 0.01 0.222319)
(-0.126824 0 -0.215443)
(-0.128186 0 -0.214635)
(-0.126824 0.01 -0.215443)
(0.115749 0 0.22159)
(0.115749 0.01 0.22159)
(-0.128186 0.01 -0.214635)
(0.11715 0.01 0.220852)
(-0.129543 0.01 -0.213819)
(0.118547 0 0.220106)
(0.118547 0.01 0.220106)
(-0.130895 0 -0.212994)
(-0.132241 0 -0.212161)
(-0.130895 0.01 -0.212994)
(0.119939 0.01 0.219351)
(-0.132241 0.01 -0.212161)
(0.121325 0.01 0.218587)
(-0.133582 0 -0.211319)
(-0.134918 0 -0.210469)
(-0.133582 0.01 -0.211319)
(0.122708 0 0.217814)
(0.122708 0.01 0.217814)
(-0.134918 0.01 -0.210469)
(0.124085 0.01 0.217032)
(-0.136248 0.01 -0.20961)
(0.125457 0 0.216242)
(-0.137573 0 -0.208743)
(0.125457 0.01 0.216242)
(-0.137573 0.01 -0.208743)
(0.126824 0.01 0.215443)
(-0.138893 0.01 -0.207867)
(-0.138893 0 -0.207867)
(0.128186 0.01 0.214635)
(-0.140206 0.01 -0.206984)
(0.128186 0 0.214635)
(-0.140206 0 -0.206984)
(0.129543 0.01 0.213819)
(-0.141515 0.01 -0.206091)
(0.129543 0 0.213819)
(0.130895 0.01 0.212994)
(-0.142817 0.01 -0.205191)
(-0.144114 0 -0.204282)
(-0.144114 0.01 -0.204282)
(0.132241 0.01 0.212161)
(0.132241 0 0.212161)
(-0.145405 0.01 -0.203365)
(0.133582 0.01 0.211319)
(-0.14669 0.01 -0.20244)
(0.134918 0.01 0.210469)
(0.134918 0 0.210469)
(-0.14669 0 -0.20244)
(-0.147969 0 -0.201507)
(-0.147969 0.01 -0.201507)
(0.136248 0.01 0.20961)
(-0.149243 0.01 -0.200566)
(0.137573 0.01 0.208743)
(0.137573 0 0.208743)
(-0.15051 0.01 -0.199617)
(0.138893 0.01 0.207867)
(-0.15051 0 -0.199617)
(-0.151771 0 -0.198659)
(-0.151771 0.01 -0.198659)
(0.140206 0.01 0.206984)
(0.140206 0 0.206984)
(-0.153026 0.01 -0.197694)
(0.141515 0.01 0.206091)
(-0.154276 0 -0.196721)
(-0.154276 0.01 -0.196721)
(0.142817 0.01 0.205191)
(-0.155518 0.01 -0.19574)
(0.144114 0.01 0.204282)
(0.144114 0 0.204282)
(-0.156755 0.01 -0.194751)
(-0.156755 0 -0.194751)
(0.145405 0.01 0.203365)
(-0.157986 0.01 -0.193754)
(0.14669 0.01 0.20244)
(0.14669 0 0.20244)
(-0.15921 0.01 -0.192749)
(-0.15921 0 -0.192749)
(0.147969 0.01 0.201507)
(-0.160427 0.01 -0.191737)
(0.149243 0.01 0.200566)
(0.149243 0 0.200566)
(-0.161638 0.01 -0.190717)
(-0.161638 0 -0.190717)
(0.15051 0.01 0.199617)
(-0.162843 0.01 -0.18969)
(0.151771 0.01 0.198659)
(0.151771 0 0.198659)
(-0.164041 0.01 -0.188654)
(0.153026 0.01 0.197694)
(0.153026 0 0.197694)
(-0.165233 0 -0.187612)
(-0.165233 0.01 -0.187612)
(-0.166418 0 -0.186561)
(0.154276 0.01 0.196721)
(-0.166418 0.01 -0.186561)
(0.155518 0 0.19574)
(0.155518 0.01 0.19574)
(-0.167596 0.01 -0.185503)
(0.156755 0.01 0.194751)
(-0.168768 0.01 -0.184438)
(0.157986 0 0.193754)
(0.157986 0.01 0.193754)
(-0.169933 0.01 -0.183366)
(-0.169933 0 -0.183366)
(0.15921 0.01 0.192749)
(-0.171091 0.01 -0.182286)
(-0.171091 0 -0.182286)
(-0.172242 0 -0.181198)
(0.160427 0.01 0.191737)
(0.160427 0 0.191737)
(-0.172242 0.01 -0.181198)
(0.161638 0.01 0.190717)
(0.161638 0 0.190717)
(-0.173386 0.01 -0.180104)
(0.162843 0.01 0.18969)
(0.162843 0 0.18969)
(-0.174523 0.01 -0.179002)
(0.164041 0.01 0.188654)
(-0.175653 0.01 -0.177893)
(-0.175653 0 -0.177893)
(0.165233 0.01 0.187612)
(-0.176777 0.01 -0.176777)
(0.166418 0.01 0.186561)
(0.166418 0 0.186561)
(-0.177893 0.01 -0.175653)
(-0.177893 0 -0.175653)
(0.167596 0.01 0.185503)
(-0.179002 0.01 -0.174523)
(-0.180104 0 -0.173386)
(0.168768 0.01 0.184438)
(0.168768 0 0.184438)
(-0.180104 0.01 -0.173386)
(0.169933 0 0.183366)
(0.169933 0.01 0.183366)
(-0.182286 0 -0.171091)
(-0.181198 0.01 -0.172242)
(0.171091 0.01 0.182286)
(-0.182286 0.01 -0.171091)
(0.172242 0 0.181198)
(-0.183366 0 -0.169933)
(0.172242 0.01 0.181198)
(-0.183366 0.01 -0.169933)
(0.173386 0 0.180104)
(0.173386 0.01 0.180104)
(-0.185503 0 -0.167596)
(-0.184438 0.01 -0.168768)
(0.174523 0 0.179002)
(0.174523 0.01 0.179002)
(-0.185503 0.01 -0.167596)
(-0.186561 0 -0.166418)
(0.175653 0.01 0.177893)
(-0.186561 0.01 -0.166418)
(0.176777 0 0.176777)
(-0.187612 0.01 -0.165233)
(0.176777 0.01 0.176777)
(0.177893 0 0.175653)
(-0.18969 0 -0.162843)
(-0.188654 0.01 -0.164041)
(0.177893 0.01 0.175653)
(-0.18969 0.01 -0.162843)
(0.179002 0.01 0.174523)
(0.180104 0 0.173386)
(-0.190717 0.01 -0.161638)
(0.180104 0.01 0.173386)
(-0.191737 0 -0.160427)
(0.181198 0 0.172242)
(-0.191737 0.01 -0.160427)
(0.181198 0.01 0.172242)
(-0.192749 0 -0.15921)
(-0.192749 0.01 -0.15921)
(0.182286 0.01 0.171091)
(-0.194751 0 -0.156755)
(0.183366 0 0.169933)
(-0.193754 0.01 -0.157986)
(0.183366 0.01 0.169933)
(-0.194751 0.01 -0.156755)
(0.184438 0.01 0.168768)
(0.185503 0 0.167596)
(-0.19574 0.01 -0.155518)
(0.185503 0.01 0.167596)
(-0.196721 0.01 -0.154276)
(0.186561 0 0.166418)
(0.186561 0.01 0.166418)
(-0.197694 0.01 -0.153026)
(0.187612 0.01 0.165233)
(-0.197694 0 -0.153026)
(-0.198659 0.01 -0.151771)
(0.188654 0.01 0.164041)
(0.188654 0 0.164041)
(-0.199617 0.01 -0.15051)
(-0.199617 0 -0.15051)
(0.18969 0.01 0.162843)
(-0.200566 0.01 -0.149243)
(-0.200566 0 -0.149243)
(0.190717 0.01 0.161638)
(0.190717 0 0.161638)
(-0.201507 0.01 -0.147969)
(0.191737 0.01 0.160427)
(-0.20244 0 -0.14669)
(-0.20244 0.01 -0.14669)
(0.192749 0 0.15921)
(0.192749 0.01 0.15921)
(-0.203365 0 -0.145405)
(-0.203365 0.01 -0.145405)
(0.193754 0.01 0.157986)
(-0.204282 0 -0.144114)
(-0.204282 0.01 -0.144114)
(0.194751 0 0.156755)
(0.194751 0.01 0.156755)
(-0.205191 0.01 -0.142817)
(0.19574 0.01 0.155518)
(-0.206091 0.01 -0.141515)
(0.196721 0 0.154276)
(0.196721 0.01 0.154276)
(-0.206984 0 -0.140206)
(-0.206984 0.01 -0.140206)
(0.197694 0 0.153026)
(0.197694 0.01 0.153026)
(-0.207867 0 -0.138893)
(-0.207867 0.01 -0.138893)
(0.198659 0 0.151771)
(0.198659 0.01 0.151771)
(-0.208743 0.01 -0.137573)
(0.199617 0.01 0.15051)
(-0.20961 0 -0.136248)
(-0.20961 0.01 -0.136248)
(0.200566 0 0.149243)
(0.200566 0.01 0.149243)
(-0.211319 0 -0.133582)
(-0.210469 0.01 -0.134918)
(0.201507 0 0.147969)
(0.201507 0.01 0.147969)
(-0.211319 0.01 -0.133582)
(0.20244 0 0.14669)
(0.20244 0.01 0.14669)
(-0.212161 0.01 -0.132241)
(0.203365 0.01 0.145405)
(-0.212994 0 -0.130895)
(-0.212994 0.01 -0.130895)
(0.204282 0 0.144114)
(0.204282 0.01 0.144114)
(-0.213819 0.01 -0.129543)
(0.205191 0 0.142817)
(0.205191 0.01 0.142817)
(-0.214635 0 -0.128186)
(-0.214635 0.01 -0.128186)
(0.206091 0.01 0.141515)
(-0.215443 0 -0.126824)
(-0.215443 0.01 -0.126824)
(0.206984 0 0.140206)
(0.206984 0.01 0.140206)
(-0.216242 0 -0.125457)
(-0.216242 0.01 -0.125457)
(0.207867 0 0.138893)
(0.207867 0.01 0.138893)
(-0.217032 0.01 -0.124085)
(0.208743 0.01 0.137573)
(-0.217814 0.01 -0.122708)
(0.20961 0 0.136248)
(0.20961 0.01 0.136248)
(-0.218587 0 -0.121325)
(-0.218587 0.01 -0.121325)
(0.210469 0 0.134918)
(0.210469 0.01 0.134918)
(-0.219351 0.01 -0.119939)
(0.211319 0.01 0.133582)
(-0.220106 0.01 -0.118547)
(0.212161 0.01 0.132241)
(0.212161 0 0.132241)
(-0.220852 0.01 -0.11715)
(-0.220852 0 -0.11715)
(0.212994 0.01 0.130895)
(0.212994 0 0.130895)
(-0.22159 0.01 -0.115749)
(-0.22159 0 -0.115749)
(0.213819 0.01 0.129543)
(-0.222319 0.01 -0.114343)
(0.214635 0.01 0.128186)
(0.214635 0 0.128186)
(-0.223038 0.01 -0.112933)
(-0.223038 0 -0.112933)
(0.215443 0.01 0.126824)
(0.215443 0 0.126824)
(-0.223749 0.01 -0.111518)
(0.216242 0.01 0.125457)
(0.216242 0 0.125457)
(-0.224451 0.01 -0.110099)
(-0.224451 0 -0.110099)
(0.217032 0.01 0.124085)
(-0.225144 0.01 -0.108675)
(0.217814 0.01 0.122708)
(0.217814 0 0.122708)
(-0.225828 0.01 -0.107246)
(-0.225828 0 -0.107246)
(0.218587 0.01 0.121325)
(0.218587 0 0.121325)
(-0.226503 0.01 -0.105814)
(0.219351 0.01 0.119939)
(-0.227168 0.01 -0.104377)
(-0.227168 0 -0.104377)
(0.220106 0.01 0.118547)
(0.220106 0 0.118547)
(-0.227825 0.01 -0.102936)
(0.220852 0.01 0.11715)
(-0.228472 0.01 -0.101491)
(-0.228472 0 -0.101491)
(0.22159 0 0.115749)
(0.22159 0.01 0.115749)
(-0.229739 0 -0.098589)
(-0.22911 0.01 -0.100042)
(-0.229739 0.01 -0.098589)
(0.222319 0.01 0.114343)
(0.223038 0 0.112933)
(-0.23097 0 -0.0956709)
(-0.230359 0.01 -0.0971319)
(0.223038 0.01 0.112933)
(0.223749 0 0.111518)
(0.224451 0 0.110099)
(-0.23097 0.01 -0.0956709)
(0.223749 0.01 0.111518)
(0.224451 0.01 0.110099)
(-0.231571 0.01 -0.094206)
(0.225144 0.01 0.108675)
(-0.232163 0 -0.0927374)
(-0.232163 0.01 -0.0927374)
(0.225828 0 0.107246)
(0.225828 0.01 0.107246)
(-0.232746 0.01 -0.0912651)
(-0.233319 0 -0.0897891)
(-0.233883 0 -0.0883095)
(0.226503 0.01 0.105814)
(-0.233319 0.01 -0.0897891)
(0.227168 0 0.104377)
(0.227168 0.01 0.104377)
(-0.233883 0.01 -0.0883095)
(-0.234438 0 -0.0868263)
(0.227825 0 0.102936)
(0.227825 0.01 0.102936)
(-0.234438 0.01 -0.0868263)
(0.228472 0.01 0.101491)
(-0.235519 0 -0.0838496)
(-0.234983 0.01 -0.0853397)
(-0.235519 0.01 -0.0838496)
(0.22911 0.01 0.100042)
(-0.236045 0.01 -0.0823562)
(0.229739 0 0.098589)
(0.229739 0.01 0.098589)
(0.230359 0.01 0.0971319)
(-0.236562 0.01 -0.0808595)
(0.230359 0 0.0971319)
(-0.236562 0 -0.0808595)
(-0.23707 0.01 -0.0793595)
(0.23097 0.01 0.0956709)
(0.23097 0 0.0956709)
(-0.237568 0 -0.0778564)
(-0.237568 0.01 -0.0778564)
(0.231571 0.01 0.094206)
(-0.238056 0.01 -0.0763501)
(0.232163 0.01 0.0927374)
(0.232163 0 0.0927374)
(-0.238535 0 -0.0748408)
(-0.238535 0.01 -0.0748408)
(0.232746 0.01 0.0912651)
(0.232746 0 0.0912651)
(-0.239004 0.01 -0.0733284)
(0.233319 0.01 0.0897891)
(-0.239464 0.01 -0.0718132)
(0.233883 0.01 0.0883095)
(-0.239464 0 -0.0718132)
(0.233883 0 0.0883095)
(-0.239914 0.01 -0.070295)
(0.234438 0.01 0.0868263)
(0.234438 0 0.0868263)
(-0.240354 0.01 -0.068774)
(0.234983 0.01 0.0853397)
(-0.240354 0 -0.068774)
(-0.240785 0.01 -0.0672503)
(0.235519 0.01 0.0838496)
(0.235519 0 0.0838496)
(-0.241206 0.01 -0.0657239)
(0.236045 0.01 0.0823562)
(-0.241618 0 -0.0641948)
(-0.241618 0.01 -0.0641948)
(0.236562 0.01 0.0808595)
(0.236562 0 0.0808595)
(-0.242019 0.01 -0.0626631)
(0.23707 0.01 0.0793595)
(-0.242411 0.01 -0.061129)
(-0.242411 0 -0.061129)
(0.237568 0.01 0.0778564)
(-0.242794 0.01 -0.0595924)
(0.238056 0.01 0.0763501)
(0.238056 0 0.0763501)
(-0.243166 0.01 -0.0580534)
(0.238535 0.01 0.0748408)
(-0.243166 0 -0.0580534)
(0.238535 0 0.0748408)
(-0.243529 0.01 -0.056512)
(0.239004 0.01 0.0733284)
(-0.243882 0.01 -0.0549684)
(0.239464 0.01 0.0718132)
(0.239464 0 0.0718132)
(0.239914 0 0.070295)
(-0.244225 0.01 -0.0534226)
(0.239914 0.01 0.070295)
(-0.244225 0 -0.0534226)
(-0.244559 0.01 -0.0518747)
(0.240354 0.01 0.068774)
(0.240354 0 0.068774)
(-0.244882 0 -0.0503246)
(0.240785 0.01 0.0672503)
(-0.244882 0.01 -0.0503246)
(0.241206 0 0.0657239)
(0.241206 0.01 0.0657239)
(-0.245196 0.01 -0.0487726)
(-0.2455 0 -0.0472186)
(-0.2455 0.01 -0.0472186)
(0.241618 0.01 0.0641948)
(-0.245794 0.01 -0.0456627)
(0.242019 0 0.0626631)
(0.242019 0.01 0.0626631)
(-0.246079 0.01 -0.0441049)
(0.242411 0.01 0.061129)
(-0.246353 0.01 -0.0425454)
(0.242794 0.01 0.0595924)
(-0.246353 0 -0.0425454)
(-0.246618 0 -0.0409842)
(0.242794 0 0.0595924)
(-0.246618 0.01 -0.0409842)
(0.243166 0.01 0.0580534)
(0.243166 0 0.0580534)
(-0.246872 0.01 -0.0394214)
(0.243529 0.01 0.056512)
(-0.247117 0.01 -0.0378569)
(0.243882 0.01 0.0549684)
(0.243882 0 0.0549684)
(-0.247352 0.01 -0.036291)
(-0.247352 0 -0.036291)
(0.244225 0.01 0.0534226)
(-0.247577 0 -0.0347236)
(-0.247577 0.01 -0.0347236)
(0.244559 0.01 0.0518747)
(0.244559 0 0.0518747)
(-0.247792 0.01 -0.0331548)
(-0.247792 0 -0.0331548)
(0.244882 0.01 0.0503246)
(0.244882 0 0.0503246)
(-0.248192 0 -0.0300133)
(-0.247997 0.01 -0.0315847)
(0.245196 0.01 0.0487726)
(-0.248192 0.01 -0.0300133)
(0.2455 0.01 0.0472186)
(0.2455 0 0.0472186)
(-0.248552 0 -0.0268669)
(-0.248377 0.01 -0.0284406)
(0.245794 0 0.0456627)
(0.246079 0 0.0441049)
(0.245794 0.01 0.0456627)
(-0.248552 0.01 -0.0268669)
(0.246079 0.01 0.0441049)
(-0.248717 0 -0.0252921)
(-0.248717 0.01 -0.0252921)
(0.246353 0.01 0.0425454)
(-0.248873 0.01 -0.0237162)
(0.246618 0 0.0409842)
(0.246618 0.01 0.0409842)
(-0.249018 0 -0.0221395)
(-0.249018 0.01 -0.0221395)
(0.246872 0 0.0394214)
(0.246872 0.01 0.0394214)
(-0.249153 0.01 -0.0205618)
(0.247352 0 0.036291)
(0.247117 0.01 0.0378569)
(-0.249278 0 -0.0189833)
(-0.249278 0.01 -0.0189833)
(0.247352 0.01 0.036291)
(-0.249499 0 -0.0158241)
(-0.249393 0.01 -0.017404)
(0.247577 0.01 0.0347236)
(-0.249499 0.01 -0.0158241)
(0.247792 0 0.0331548)
(0.247792 0.01 0.0331548)
(-0.249594 0 -0.0142435)
(-0.249594 0.01 -0.0142435)
(0.247997 0 0.0315847)
(0.247997 0.01 0.0315847)
(-0.249679 0 -0.0126623)
(-0.249679 0.01 -0.0126623)
(0.248192 0.01 0.0300133)
(-0.249754 0 -0.0110806)
(-0.249819 0 -0.0094985)
(-0.249754 0.01 -0.0110806)
(0.248377 0 0.0284406)
(0.248552 0 0.0268669)
(0.248377 0.01 0.0284406)
(-0.249819 0.01 -0.0094985)
(0.248552 0.01 0.0268669)
(-0.249875 0 -0.007916)
(-0.249875 0.01 -0.007916)
(0.248717 0.01 0.0252921)
(-0.24992 0.01 -0.00633318)
(0.248873 0 0.0237162)
(0.248873 0.01 0.0237162)
(-0.249955 0.01 -0.00475011)
(-0.249955 0 -0.00475011)
(0.249018 0 0.0221395)
(0.249018 0.01 0.0221395)
(-0.24998 0.01 -0.00316684)
(-0.249995 0 -0.00158345)
(0.249153 0.01 0.0205618)
(0.249153 0 0.0205618)
(-0.249995 0.01 -0.00158345)
(0.249278 0.01 0.0189833)
(-0.25 0.01 2.61861e-15)
(-0.25 0 2.61861e-15)
(0.249393 0.01 0.017404)
(0.249393 0 0.017404)
(-0.249995 0.01 0.00158345)
(0.249499 0.01 0.0158241)
(-0.24998 0 0.00316684)
(-0.24998 0.01 0.00316684)
(0.249594 0.01 0.0142435)
(0.249594 0 0.0142435)
(-0.249955 0 0.00475011)
(-0.249955 0.01 0.00475011)
(0.249679 0.01 0.0126623)
(-0.24992 0 0.00633318)
(-0.24992 0.01 0.00633318)
(0.249754 0 0.0110806)
(0.249819 0 0.0094985)
(0.249754 0.01 0.0110806)
(-0.249875 0 0.007916)
(-0.249819 0 0.0094985)
(-0.249875 0.01 0.007916)
(0.249819 0.01 0.0094985)
(-0.249819 0.01 0.0094985)
(0.249875 0 0.007916)
(0.249875 0.01 0.007916)