/*--------------------------------*- C++ -*----------------------------------*\
  =========                 |
  \\      /  F ield         | OpenFOAM: The Open Source CFD Toolbox
   \\    /   O peration     | Website:  https://openfoam.org
    \\  /    A nd           | Version:  7
     \\/     M anipulation  |
\*---------------------------------------------------------------------------*/
FoamFile
{
    version     2.0;
    format      ascii;
    class       dictionary;
    object      dynamicMeshDict;
}
// * * * * * * * * * * * * * * * * * * * * * * * * * * * * * * * * * * * * * //

 dynamicFvMesh dynamicMotionSolverFvMesh;
// motionSolverLibs ("libfvMotionSolvers.so");
 motionSolverLibs ("libsixDoFRigidBodyMotion.so");

// solver            displacementLaplacian;
 motionSolver solidBody;

cellZone rotatingZone;
//displacementLaplacianCoeffs
//{
    diffusivity       inverseDistance (discoPatch);                       //s1
 solidBodyMotionFunction oscillatingLinearMotion;
 amplitude       (0 0 0.1);
 omega           0.5;
 innerDistance   0.1;
 outerDistance   1;
//}
 
//diffusivity       inverseDistance (discoPatch);

// solidBodyMotionFunction oscillatingLinearMotion;
// amplitude       (0 0 0.1);
// omega           0.5;
// innerDistance   0.5;
// outerDistance   1;

// * * * * * * * * * * * * * * * * * * * * * * * * * * * * * * * * * * * * * //
/*
dynamicFvMesh   dynamicMotionSolverFvMesh;

motionSolverLibs ("libsixDoFRigidBodyMotion.so");

motionSolver    sixDoFRigidBodyMotion;

patches         (discoPatch);
innerDistance   0.1;
outerDistance   1;

mass            10;
centreOfMass    (0 0 0);
momentOfInertia (1 1 1);
orientation
(
    1 0 0
    0 1 0
    0 0 1
);
angularMomentum (0 0 0);
g               (0 0 0);
rho             rhoInf;
rhoInf          1;
report          on;

solver
{
    type symplectic;
}

constraints
{
    yLine
    {
        sixDoFRigidBodyMotionConstraint line;
        centreOfRotation    (0 0 0);
        direction           (0 0 1);
    }
   
    noRotation
    {
        sixDoFRigidBodyMotionConstraint orientation;
    }

    zAxis
    {
        sixDoFRigidBodyMotionConstraint axis;
        axis                (0 1 0);
    }
}

restraints
{
    verticalSpring
    {
        sixDoFRigidBodyMotionRestraint linearSpring;

        anchor          (0 0 0);
        refAttachmentPt (0 0 0);
        stiffness       100;
        damping         0;
        restLength      0.1;
    }
/*
    axialSpring
    {
        sixDoFRigidBodyMotionRestraint linearAxialAngularSpring;

        axis            (1 0 0);
        stiffness       70;
        damping         0.5;
        referenceOrientation $orientation;
    }
*/
}


// ************************************************************************* //
